<?xml version="1.0" encoding="utf-8"?>
<!DOCTYPE population SYSTEM "http://www.matsim.org/files/dtd/population_v6.dtd">

<population>



<!-- ====================================================================== -->

	<person id="p1">
		<attributes>
			<attribute name="age" class="java.lang.String">35-39</attribute>
			<attribute name="education" class="java.lang.String">ISCED11_7</attribute>
			<attribute name="has_car" class="java.lang.Boolean">true</attribute>
			<attribute name="median_income" class="java.lang.Double">28501.0</attribute>
			<attribute name="sex" class="java.lang.String">F</attribute>
		</attributes>
		<plan selected="yes">
			<activity type="home" x="152721.889" y="172843.619" end_time="09:00:00" >
			</activity>
			<leg mode="car">
			</leg>
			<activity type="work" x="150844.17944" y="163502.64919997938" end_time="17:00:00" >
			</activity>
			<leg mode="car">
			</leg>
			<activity type="home" x="152721.889" y="172843.619" >
			</activity>
		</plan>

	</person>

<!-- ====================================================================== -->

	<person id="p2">
		<attributes>
			<attribute name="age" class="java.lang.String">45-49</attribute>
			<attribute name="education" class="java.lang.String">ISCED11_1</attribute>
			<attribute name="has_car" class="java.lang.Boolean">true</attribute>
			<attribute name="median_income" class="java.lang.Double">22031.0</attribute>
			<attribute name="sex" class="java.lang.String">M</attribute>
		</attributes>
		<plan selected="yes">
			<activity type="home" x="145643.306" y="168483.977" end_time="07:30:00" >
			</activity>
			<leg mode="car">
			</leg>
			<activity type="work" x="146881.87944" y="174443.8791999789" end_time="16:55:00" >
			</activity>
			<leg mode="car">
			</leg>
			<activity type="home" x="145643.306" y="168483.977" >
			</activity>
		</plan>

	</person>

<!-- ====================================================================== -->

	<person id="p3">
		<attributes>
			<attribute name="age" class="java.lang.String">55-59</attribute>
			<attribute name="education" class="java.lang.String">ISCED11_1</attribute>
			<attribute name="has_car" class="java.lang.Boolean">false</attribute>
			<attribute name="median_income" class="java.lang.Double">25740.0</attribute>
			<attribute name="sex" class="java.lang.String">M</attribute>
		</attributes>
		<plan selected="yes">
			<activity type="home" x="152573.7" y="173736.769" end_time="08:20:00" >
			</activity>
			<leg mode="bike">
			</leg>
			<activity type="work" x="153448.279276" y="174777.4751059804" end_time="16:50:00" >
			</activity>
			<leg mode="bike">
			</leg>
			<activity type="home" x="152573.7" y="173736.769" >
			</activity>
		</plan>

	</person>

<!-- ====================================================================== -->

</population>
